case33.py
# Copyright (c) 1996-2015 PSERC. All rights reserved.
# Use of this source code is governed by a BSD-style
# license that can be found in the LICENSE file.

"""Power flow data for IEEE-33 bus system, 1 generator case.
"""

from numpy import array


def case33():
    ppc = {"version": '2'}

    ##-----  Power Flow Data  -----##
    ## system MVA base
    ppc["baseMVA"] = 1

    ## bus data
    # bus_i type Pd Qd Gs Bs area Vm Va baseKV zone Vmax Vmin
    ppc["bus"] = array([
        [0, 3, 0, 0, 0, 0, 1, 1, 0, 12.66, 1, 1.1, 0.9],
        [1, 1, 100, 60, 0, 0, 1, 1, 0, 12.66, 1, 1.1, 0.9],
        [2, 1, 90, 40, 0, 0, 1, 1, 0, 12.66, 1, 1.1, 0.9],
        [3, 1, 120, 80, 0, 0, 1, 1, 0, 12.66, 1, 1.1, 0.9],
        [4, 1, 60, 30, 0, 0, 1, 1, 0, 12.66, 1, 1.1, 0.9],
        [5, 1, 60, 20, 0, 0, 1, 1, 0, 12.66, 1, 1.1, 0.9],
        [6, 1, 200, 100, 0, 0, 1, 1, 0, 12.66, 1, 1.1, 0.9],
        [7, 1, 200, 100, 0, 0, 1, 1, 0, 12.66, 1, 1.1, 0.9],
        [8, 1, 60, 20, 0, 0, 1, 1, 0, 12.66, 1, 1.1, 0.9],
        [9, 1, 60, 20, 0, 0, 1, 1, 0, 12.66, 1, 1.1, 0.9],
        [10, 1, 45, 30, 0, 0, 1, 1, 0, 12.66, 1, 1.1, 0.9],
        [11, 1, 60, 35, 0, 0, 1, 1, 0, 12.66, 1, 1.1, 0.9],
        [12, 1, 60, 35, 0, 0, 1, 1, 0, 12.66, 1, 1.1, 0.9],
        [13, 1, 120, 80, 0, 0, 1, 1, 0, 12.66, 1, 1.1, 0.9],
        [14, 1, 60, 10, 0, 0, 1, 1, 0, 12.66, 1, 1.1, 0.9],
        [15, 1, 60, 20, 0, 0, 1, 1, 0, 12.66, 1, 1.1, 0.9],
        [16, 1, 60, 20, 0, 0, 1, 1, 0, 12.66, 1, 1.1, 0.9],
        [17, 1, 90, 40, 0, 0, 1, 1, 0, 12.66, 1, 1.1, 0.9],
        [18, 1, 90, 40, 0, 0, 1, 1, 0, 12.66, 1, 1.1, 0.9],
        [19, 1, 90, 40, 0, 0, 1, 1, 0, 12.66, 1, 1.1, 0.9],
        [20, 1, 90, 40, 0, 0, 1, 1, 0, 12.66, 1, 1.1, 0.9],
        [21, 1, 90, 40, 0, 0, 1, 1, 0, 12.66, 1, 1.1, 0.9],
        [22, 1, 90, 50, 0, 0, 1, 1, 0, 12.66, 1, 1.1, 0.9],
        [23, 1, 420, 200, 0, 0, 1, 1, 0, 12.66, 1, 1.1, 0.9],
        [24, 1, 420, 200, 0, 0, 1, 1, 0, 12.66, 1, 1.1, 0.9],
        [25, 1, 60, 25, 0, 0, 1, 1, 0, 12.66, 1, 1.1, 0.9],
        [26, 1, 60, 25, 0, 0, 1, 1, 0, 12.66, 1, 1.1, 0.9],
        [27, 1, 60, 20, 0, 0, 1, 1, 0, 12.66, 1, 1.1, 0.9],
        [28, 1, 120, 70, 0, 0, 1, 1, 0, 12.66, 1, 1.1, 0.9],
        [29, 1, 200, 600, 0, 0, 1, 1, 0, 12.66, 1, 1.1, 0.9],
        [30, 1, 150, 70, 0, 0, 1, 1, 0, 12.66, 1, 1.1, 0.9],
        [31, 1, 210, 100, 0, 0, 1, 1, 0, 12.66, 1, 1.1, 0.9],
        [32, 1, 60, 40, 0, 0, 1, 1, 0, 12.66, 1, 1.1, 0.9]
    ])

    ## generator data
    # bus, Pg, Qg, Qmax, Qmin, Vg, mBase, status, Pmax, Pmin, Pc1, Pc2,
    # Qc1min, Qc1max, Qc2min, Qc2max, ramp_agc, ramp_10, ramp_30, ramp_q, apf
    ppc["gen"] = array([
        [0, 0, 0, 10, -10, 1, 100, 1, 10, 0, 0, 0, 0, 0, 0, 0, 0, 0, 0, 0, 0]
    ])

    ## branch data
    # fbus, tbus, r, x, b, rateA, rateB, rateC, ratio, angle, status, angmin, angmax
    ppc["branch"] = array([
        [0, 1, 0.0922, 0.0470, 0, 0, 0, 0, 0, 0, 1, -360, 360],
        [1, 2, 0.4930, 0.2511, 0, 0, 0, 0, 0, 0, 1, -360, 360],
        [2, 3, 0.3660, 0.1864, 0, 0, 0, 0, 0, 0, 1, -360, 360],
        [3, 4, 0.3811, 0.1941, 0, 0, 0, 0, 0, 0, 1, -360, 360],
        [4, 5, 0.8190, 0.7070, 0, 0, 0, 0, 0, 0, 1, -360, 360],
        [5, 6, 0.1872, 0.6188, 0, 0, 0, 0, 0, 0, 1, -360, 360],
        [6, 7, 1.7114, 1.2351, 0, 0, 0, 0, 0, 0, 1, -360, 360],
        [7, 8, 1.0300, 0.7400, 0, 0, 0, 0, 0, 0, 1, -360, 360],
        [8, 9, 1.0440, 0.7400, 0, 0, 0, 0, 0, 0, 1, -360, 360],
        [9, 10, 0.1966, 0.0650, 0, 0, 0, 0, 0, 0, 1, -360, 360],
        [10, 11, 0.3744, 0.1238, 0, 0, 0, 0, 0, 0, 1, -360, 360],
        [11, 12, 1.4680, 1.1550, 0, 0, 0, 0, 0, 0, 1, -360, 360],
        [12, 13, 0.5416, 0.7129, 0, 0, 0, 0, 0, 0, 1, -360, 360],
        [13, 14, 0.5910, 0.5260, 0, 0, 0, 0, 0, 0, 1, -360, 360],
        [14, 15, 0.7463, 0.5450, 0, 0, 0, 0, 0, 0, 1, -360, 360],
        [15, 16, 1.2890, 1.7210, 0, 0, 0, 0, 0, 0, 1, -360, 360],
        [16, 17, 100.7320, 0.5740, 0, 0, 0, 0, 0, 0, 1, -360, 360],  # 0.7320-->100.7320
        [1, 18, 0.1640, 0.1565, 0, 0, 0, 0, 0, 0, 1, -360, 360],
        [18, 19, 1.5042, 1.3554, 0, 0, 0, 0, 0, 0, 1, -360, 360],
        [19, 20, 0.4095, 0.4784, 0, 0, 0, 0, 0, 0, 1, -360, 360],
        [20, 21, 0.7089, 0.9373, 0, 0, 0, 0, 0, 0, 1, -360, 360],
        [2, 22, 0.4512, 0.3083, 0, 0, 0, 0, 0, 0, 1, -360, 360],
        [22, 23, 0.8980, 0.7091, 0, 0, 0, 0, 0, 0, 1, -360, 360],
        [23, 24, 0.8960, 0.7011, 0, 0, 0, 0, 0, 0, 1, -360, 360],
        [5, 25, 0.2030, 0.1034, 0, 0, 0, 0, 0, 0, 1, -360, 360],
        [25, 26, 0.2842, 0.1447, 0, 0, 0, 0, 0, 0, 1, -360, 360],
        [26, 27, 1.0590, 0.9337, 0, 0, 0, 0, 0, 0, 1, -360, 360],
        [27, 28, 0.8042, 0.7006, 0, 0, 0, 0, 0, 0, 1, -360, 360],
        [28, 29, 0.5075, 0.2585, 0, 0, 0, 0, 0, 0, 1, -360, 360],
        [29, 30, 0.9744, 0.9630, 0, 0, 0, 0, 0, 0, 1, -360, 360],
        [30, 31, 0.3105, 0.3619, 0, 0, 0, 0, 0, 0, 1, -360, 360],
        [31, 32, 0.3410, 0.5302, 0, 0, 0, 0, 0, 0, 1, -360, 360]
    ])
    return ppc
